<?xml version="1.0" encoding="UTF-8"?>

<!-- generated on 2021-08-17 17:05:35 by Eclipse SUMO netedit Version 1.9.2
<configuration xmlns:xsi="http://www.w3.org/2001/XMLSchema-instance" xsi:noNamespaceSchemaLocation="http://sumo.dlr.de/xsd/netconvertConfiguration.xsd">

    <input>
        <sumo-net-file value="F:\OneDrive\Highway-Control\Vehicle-speed-control-test\test.net.xml"/>
    </input>

    <output>
        <output-file value="F:\OneDrive\Highway-Control\Vehicle-speed-control-test\test.net.xml"/>
    </output>

    <processing>
        <geometry.min-radius.fix.railways value="false"/>
        <geometry.max-grade.fix value="false"/>
        <offset.disable-normalization value="true"/>
        <lefthand value="false"/>
    </processing>

    <junctions>
        <no-turnarounds value="true"/>
        <junctions.corner-detail value="5"/>
        <junctions.limit-turn-speed value="5.5"/>
        <rectangular-lane-cut value="false"/>
    </junctions>

    <pedestrian>
        <walkingareas value="false"/>
    </pedestrian>

    <netedit>
        <route-files value="F:\OneDrive\Highway-Control\Vehicle-speed-control-test\test.rou.xml"/>
    </netedit>

    <report>
        <aggregate-warnings value="5"/>
    </report>

</configuration>
-->

<routes xmlns:xsi="http://www.w3.org/2001/XMLSchema-instance" xsi:noNamespaceSchemaLocation="http://sumo.dlr.de/xsd/routes_file.xsd">
    <vType id="car" length="5.00" minGap="5.00" maxSpeed="41.00" vClass="passenger" color="255,0,27" accel="0.8" decel="4.5" sigma="0.6"/>
    <trip id="vehicle_0" type="car" depart="0.00" from="gneE1" to="gneE4"/>
</routes>
