<?xml version="1.0" encoding="UTF-8"?>

<!-- generated on 2021-08-10 21:46:56 by Eclipse SUMO netedit Version 1.9.2
<configuration xmlns:xsi="http://www.w3.org/2001/XMLSchema-instance" xsi:noNamespaceSchemaLocation="http://sumo.dlr.de/xsd/netconvertConfiguration.xsd">

    <input>
        <sumo-net-file value="F:\OneDrive\Highway-Control\Vehicle-speed-control-test\test.net.xml"/>
    </input>

    <output>
        <output-file value="F:\OneDrive\Highway-Control\Vehicle-speed-control-test\test.net.xml"/>
    </output>

    <processing>
        <geometry.min-radius.fix.railways value="false"/>
        <geometry.max-grade.fix value="false"/>
        <offset.disable-normalization value="true"/>
        <lefthand value="false"/>
    </processing>

    <junctions>
        <no-turnarounds value="true"/>
        <junctions.corner-detail value="5"/>
        <junctions.limit-turn-speed value="5.5"/>
        <rectangular-lane-cut value="false"/>
    </junctions>

    <pedestrian>
        <walkingareas value="false"/>
    </pedestrian>

    <report>
        <aggregate-warnings value="5"/>
    </report>

</configuration>
-->

<net version="1.9" junctionCornerDetail="5" limitTurnSpeed="5.50" xmlns:xsi="http://www.w3.org/2001/XMLSchema-instance" xsi:noNamespaceSchemaLocation="http://sumo.dlr.de/xsd/net_file.xsd">

    <location netOffset="0.00,0.00" convBoundary="-1400.00,0.00,-400.00,800.00" origBoundary="-10000000000.00,-10000000000.00,10000000000.00,10000000000.00" projParameter="!"/>

    <edge id=":gneJ5_0" function="internal">
        <lane id=":gneJ5_0_0" index="0" speed="3.90" length="2.58" shape="-403.20,698.40 -402.50,698.30 -402.00,698.00 -401.70,697.50 -401.60,696.80"/>
    </edge>
    <edge id=":gneJ6_0" function="internal">
        <lane id=":gneJ6_0_0" index="0" speed="3.90" length="2.58" shape="-401.60,3.20 -401.70,2.50 -402.00,2.00 -402.50,1.70 -403.20,1.60"/>
    </edge>
    <edge id=":gneJ7_0" function="internal">
        <lane id=":gneJ7_0_0" index="0" speed="3.90" length="2.58" shape="-1396.80,1.60 -1397.50,1.70 -1398.00,2.00 -1398.30,2.50 -1398.40,3.20"/>
    </edge>

    <edge id="gneE1" from="gneJ2" to="gneJ5" priority="-1">
        <lane id="gneE1_0" index="0" speed="13.89" length="896.80" shape="-1300.00,698.40 -403.20,698.40"/>
    </edge>
    <edge id="gneE2" from="gneJ5" to="gneJ6" priority="-1">
        <lane id="gneE2_0" index="0" speed="13.89" length="693.60" shape="-401.60,696.80 -401.60,3.20"/>
    </edge>
    <edge id="gneE3" from="gneJ6" to="gneJ7" priority="-1">
        <lane id="gneE3_0" index="0" speed="13.89" length="993.60" shape="-403.20,1.60 -1396.80,1.60"/>
    </edge>
    <edge id="gneE4" from="gneJ7" to="gneJ3" priority="-1">
        <lane id="gneE4_0" index="0" speed="13.89" length="796.80" shape="-1398.40,3.20 -1398.40,800.00"/>
    </edge>

    <junction id="gneJ2" type="dead_end" x="-1300.00" y="700.00" incLanes="" intLanes="" shape="-1300.00,700.00 -1300.00,696.80"/>
    <junction id="gneJ3" type="dead_end" x="-1400.00" y="800.00" incLanes="gneE4_0" intLanes="" shape="-1396.80,800.00 -1400.00,800.00"/>
    <junction id="gneJ5" type="priority" x="-400.00" y="700.00" incLanes="gneE1_0" intLanes=":gneJ5_0_0" shape="-400.00,696.80 -403.20,696.80 -403.20,700.00 -401.42,699.64 -400.80,699.20 -400.36,698.58 -400.09,697.78">
        <request index="0" response="0" foes="0" cont="0"/>
    </junction>
    <junction id="gneJ6" type="priority" x="-400.00" y="0.00" incLanes="gneE2_0" intLanes=":gneJ6_0_0" shape="-403.20,3.20 -400.00,3.20 -400.36,1.42 -400.80,0.80 -401.42,0.36 -402.22,0.09 -403.20,0.00">
        <request index="0" response="0" foes="0" cont="0"/>
    </junction>
    <junction id="gneJ7" type="priority" x="-1400.00" y="0.00" incLanes="gneE3_0" intLanes=":gneJ7_0_0" shape="-1400.00,3.20 -1396.80,3.20 -1396.80,0.00 -1398.58,0.36 -1399.20,0.80 -1399.64,1.42 -1399.91,2.22">
        <request index="0" response="0" foes="0" cont="0"/>
    </junction>

    <connection from="gneE1" to="gneE2" fromLane="0" toLane="0" via=":gneJ5_0_0" dir="r" state="M"/>
    <connection from="gneE2" to="gneE3" fromLane="0" toLane="0" via=":gneJ6_0_0" dir="r" state="M"/>
    <connection from="gneE3" to="gneE4" fromLane="0" toLane="0" via=":gneJ7_0_0" dir="r" state="M"/>

    <connection from=":gneJ5_0" to="gneE2" fromLane="0" toLane="0" dir="r" state="M"/>
    <connection from=":gneJ6_0" to="gneE3" fromLane="0" toLane="0" dir="r" state="M"/>
    <connection from=":gneJ7_0" to="gneE4" fromLane="0" toLane="0" dir="r" state="M"/>

</net>
